
 ANSYS Academic Teaching Advanced                  


 *------------------------------------------------------------------*
 |                                                                  |
 |   W E L C O M E   T O   T H E   A N S Y S (R)  P R O G R A M     |
 |                                                                  |
 *------------------------------------------------------------------*




 ***************************************************************
 *                  ANSYS 14.5 LEGAL NOTICES                   *
 ***************************************************************
 *                                                             *
 * Copyright 2013 SAS IP, Inc.  All rights reserved.           *
 * Unauthorized use, distribution or duplication is            *
 * prohibited.                                                 *
 *                                                             *
 * Ansys is a registered trademark of ANSYS, Inc. or its       *
 * subsidiaries in the United States or other countries.       *
 * See the ANSYS, Inc. online documentation or the ANSYS, Inc. *
 * documentation CD or online help for the complete Legal      *
 * Notice.                                                     *
 *                                                             *
 ***************************************************************
 *                                                             *
 * THIS ANSYS SOFTWARE PRODUCT AND PROGRAM DOCUMENTATION       *
 * INCLUDE TRADE SECRETS AND CONFIDENTIAL AND PROPRIETARY      *
 * PRODUCTS OF ANSYS, INC., ITS SUBSIDIARIES, OR LICENSORS.    *
 * The software products and documentation are furnished by    *
 * ANSYS, Inc. or its subsidiaries under a software license    *
 * agreement that contains provisions concerning               *
 * non-disclosure, copying, length and nature of use,          *
 * compliance with exporting laws, warranties, disclaimers,    *
 * limitations of liability, and remedies, and other           *
 * provisions.  The software products and documentation may be *
 * used, disclosed, transferred, or copied only in accordance  *
 * with the terms and conditions of that software license      *
 * agreement.                                                  *
 *                                                             *
 * ANSYS, Inc. is a UL registered                              *
 * ISO 9001:2008 company.                                      *
 *                                                             *
 ***************************************************************
 *                                                             *
 * This product is subject to U.S. laws governing export and   *
 * re-export.                                                  *
 *                                                             *
 * For U.S. Government users, except as specifically granted   *
 * by the ANSYS, Inc. software license agreement, the use,     *
 * duplication, or disclosure by the United States Government  *
 * is subject to restrictions stated in the ANSYS, Inc.        *
 * software license agreement and FAR 12.212 (for non-DOD      *
 * licenses).                                                  *
 *                                                             *
 ***************************************************************



          *****  ANSYS COMMAND LINE ARGUMENTS  *****
  BATCH MODE REQUESTED (-b)    = NOLIST
  INPUT FILE COPY MODE (-c)    = COPY
     2 PARALLEL CPUS REQUESTED
  DESIGNXPLORER REQUESTED
  START-UP FILE MODE           = NOREAD
  STOP FILE MODE               = NOREAD

 00232376          VERSION=WINDOWS x64     RELEASE= 14.5.7   UP20130316
 CURRENT JOBNAME=file  06:15:49  MAY 03, 2015 CP=      0.718


 PARAMETER _DS_PROGRESS =     999.0000000    

 /INPUT FILE= ds.dat  LINE=       0

 *GET  _WALLSTRT  FROM  ACTI  ITEM=TIME WALL  VALUE=  6.26361111    

 TITLE= 
 s1--Static Structural (A5)                                                    


 SET PARAMETER DIMENSIONS ON  _WB_PROJECTSCRATCH_DIR
  TYPE=STRI  DIMENSIONS=      248        1        1

 PARAMETER _WB_PROJECTSCRATCH_DIR(1) = C:\Users\xkong\Documents\kmxz\mech4450project\_ProjectScratch\Scr3A64\

 SET PARAMETER DIMENSIONS ON  _WB_SOLVERFILES_DIR
  TYPE=STRI  DIMENSIONS=      248        1        1

 PARAMETER _WB_SOLVERFILES_DIR(1) = C:\Users\xkong\Documents\kmxz\mech4450project\s1_files\dp0\SYS\MECH\

 SET PARAMETER DIMENSIONS ON  _WB_USERFILES_DIR
  TYPE=STRI  DIMENSIONS=      248        1        1

 PARAMETER _WB_USERFILES_DIR(1) = C:\Users\xkong\Documents\kmxz\mech4450project\s1_files\user_files\
 --- Data in consistent MKS units.

 MKS UNITS SPECIFIED FOR INTERNAL    
  LENGTH        (l)  = METER (M)
  MASS          (M)  = KILOGRAM (KG)
  TIME          (t)  = SECOND (SEC)
  TEMPERATURE   (T)  = CELSIUS (C)
  TOFFSET            = 273.0
  CHARGE        (Q)  = COULOMB
  FORCE         (f)  = NEWTON (N) (KG-M/SEC2)
  HEAT               = JOULE (N-M)

  PRESSURE           = PASCAL (NEWTON/M**2)
  ENERGY        (W)  = JOULE (N-M)
  POWER         (P)  = WATT (N-M/SEC)
  CURRENT       (i)  = AMPERE (COULOMBS/SEC)
  CAPACITANCE   (C)  = FARAD
  INDUCTANCE    (L)  = HENRY
  MAGNETIC FLUX      = WEBER
  RESISTANCE    (R)  = OHM
  ELECTRIC POTENTIAL = VOLT

 INPUT  UNITS ARE ALSO SET TO MKS 
1

 ***** ANSYS - ENGINEERING ANALYSIS SYSTEM  RELEASE 14.5.7   *****
 ANSYS Academic Teaching Advanced                  
 00232376          VERSION=WINDOWS x64   06:15:49  MAY 03, 2015 CP=      0.764

 s1--Static Structural (A5)                                                    


          ***** ANSYS ANALYSIS DEFINITION (PREP7) *****
 *********** Nodes for the whole assembly ***********
 *********** Elements for Body 1 "Solid" ***********
 *********** Send User Defined Coordinate System(s) ***********
 *********** Set Reference Temperature ***********
 *********** Send Materials ***********
 *********** Fixed Supports ***********
 *********** Create Bearing Load ***********
 *********** Create Bearing Load ***********


 ***** ROUTINE COMPLETED *****  CP =         1.076


 --- Number of total nodes = 45979
 --- Number of contact elements = 416
 --- Number of spring elements = 0
 --- Number of bearing elements = 0
 --- Number of solid elements = 30171
 --- Number of total elements = 30587

 *GET  _WALLBSOL  FROM  ACTI  ITEM=TIME WALL  VALUE=  6.26361111    
 ****************************************************************************
 *************************    SOLUTION       ********************************
 ****************************************************************************

 *****  ANSYS SOLUTION ROUTINE  *****


 PERFORM A STATIC ANALYSIS
  THIS WILL BE A NEW ANALYSIS

 NEW SOLUTION CONTROL OPTION IS ACTIVATED,
 THE FOLLOWING COMMANDS ARE RESET TO NEW DEFAULTS: 
 AUTOTS, DELTIM, NSUB, CNVTOL, LNSRCH, PRED, NROPT,
 TINTP, CUTCONTROL, OPNCONTROL, MONITOR, NEQIT, SSTIF, KBC.

 CONTACT TIME PREDICTIONS ARE BASED ON ELEMENT KEYOPT(7) SPECIFIED 

 USE PRECONDITIONED CONJUGATE GRADIENT SOLVER
  CONVERGENCE TOLERANCE = 1.00000E-08
  MAXIMUM ITERATION     = NumNode*DofPerNode*  1.0000    

 CONTACT INFORMATION PRINTOUT LEVEL    1

 NLDIAG: Nonlinear diagnostics CONT option is set to ON. 
         Writing frequency : each ITERATION.

 DO NOT SAVE ANY RESTART FILES AT ALL
 ****************************************************
 ******************* SOLVE FOR LS 1 ****************

 SELECT       FOR ITEM=TYPE COMPONENT=    
  IN RANGE       2 TO        2 STEP        1

      208  ELEMENTS (OF    30587  DEFINED) SELECTED BY  ESEL  COMMAND.

 SPECIFIED SURFACE LOAD PRES FOR ALL SELECTED ELEMENTS  LKEY =  5   KVAL = 1
     VALUES =     0.0000         1.0000         0.0000         0.0000    

 COORDINATE SYSTEM     11 DEFINITION.  TYPE= 0  (CARTESIAN)  
   XC,YC,ZC=  0.0000      0.0000      0.0000    
   ANGLES=    0.00    0.00    0.00   PARAMETERS=   1.000   1.000
   ORIENTATION=  1.00  0.00  0.00   0.00  1.00  0.00   0.00  0.00  1.00

 ACTIVE COORDINATE SYSTEM SET TO     11  (CARTESIAN)  

 ACTIVE COORDINATE SYSTEM SET TO      0  (CARTESIAN)  

 PARAMETER _V1 =     1.000000000    

 PARAMETER _V2 =     0.000000000    

 PARAMETER _V3 =     0.000000000    

 *GET  _NECURR   FROM  ELEM  ITEM=COUN           VALUE=  208.000000    

 PARAMETER _ECURR =     0.000000000    

 PARAMETER _TOTAL =     0.000000000    

 *DO LOOP ON PARAMETER= _I FROM  1.0000     TO  208.00     BY  1.0000    

 PARAMETER _ECURR =     30172.00000    

 PARAMETER _NORMX =    0.4161241284    

 PARAMETER _NORMY =    0.3507820079E-01

 PARAMETER _NORMZ =   -0.9086309645    

 PARAMETER _NORMMAG =     1.000000000    

 PARAMETER _NORMX =    0.4161241284    

 PARAMETER _NORMY =    0.3507820079E-01

 PARAMETER _NORMZ =   -0.9086309645    

 PARAMETER _DOT =    0.4161241284    

 *IF  _dot                              ( =  0.416124     )  GT  
      -.00001                           ( = -0.100000E-04 )  THEN    

 UNSELECT     FOR ITEM=ELEM COMPONENT=    
  IN RANGE   30172 TO    30172 STEP        1

      207  ELEMENTS (OF    30587  DEFINED) SELECTED BY  ESEL  COMMAND.

 *ELSE

 *ENDIF

 *ENDDO  INDEX= _I                              

 *GET  _NECURR   FROM  ELEM  ITEM=COUN           VALUE=  104.000000    

 *IF  _necurr                           ( =   104.000     )  EQ  
      0                                 ( =   0.00000     )  THEN    

 *ENDIF

 PARAMETER _MAG =     100000.0000    

 PARAMETER _MAG =     83520410.99    

 SPECIFIED SURFACE LOAD PRES FOR ALL SELECTED ELEMENTS  LKEY =  5   KVAL = 1
     VALUES =    0.83520E+08    0.10000E+06     0.0000         0.0000    

 ALL SELECT   FOR ITEM=NODE COMPONENT=    
  IN RANGE       1 TO    45979 STEP        1

    45979  NODES (OF    45979  DEFINED) SELECTED BY NSEL  COMMAND.

 ALL SELECT   FOR ITEM=ELEM COMPONENT=    
  IN RANGE       1 TO    30587 STEP        1

    30587  ELEMENTS (OF    30587  DEFINED) SELECTED BY  ESEL  COMMAND.

 SELECT       FOR ITEM=TYPE COMPONENT=    
  IN RANGE       3 TO        3 STEP        1

      208  ELEMENTS (OF    30587  DEFINED) SELECTED BY  ESEL  COMMAND.

 SPECIFIED SURFACE LOAD PRES FOR ALL SELECTED ELEMENTS  LKEY =  5   KVAL = 1
     VALUES =     0.0000         1.0000         0.0000         0.0000    

 COORDINATE SYSTEM     11 DEFINITION.  TYPE= 0  (CARTESIAN)  
   XC,YC,ZC=  0.0000      0.0000      0.0000    
   ANGLES=    0.00    0.00    0.00   PARAMETERS=   1.000   1.000
   ORIENTATION=  1.00  0.00  0.00   0.00  1.00  0.00   0.00  0.00  1.00

 ACTIVE COORDINATE SYSTEM SET TO     11  (CARTESIAN)  

 ACTIVE COORDINATE SYSTEM SET TO      0  (CARTESIAN)  

 PARAMETER _V1 =     1.000000000    

 PARAMETER _V2 =     0.000000000    

 PARAMETER _V3 =     0.000000000    

 *GET  _NECURR   FROM  ELEM  ITEM=COUN           VALUE=  208.000000    

 PARAMETER _ECURR =     0.000000000    

 PARAMETER _TOTAL =     0.000000000    

 *DO LOOP ON PARAMETER= _I FROM  1.0000     TO  208.00     BY  1.0000    

 PARAMETER _ECURR =     30380.00000    

 PARAMETER _NORMX =    0.9969474443    

 PARAMETER _NORMY =    0.3202702857E-01

 PARAMETER _NORMZ =    0.7120437341E-01

 PARAMETER _NORMMAG =     1.000000000    

 PARAMETER _NORMX =    0.9969474443    

 PARAMETER _NORMY =    0.3202702857E-01

 PARAMETER _NORMZ =    0.7120437341E-01

 PARAMETER _DOT =    0.9969474443    

 *IF  _dot                              ( =  0.996947     )  GT  
      -.00001                           ( = -0.100000E-04 )  THEN    

 UNSELECT     FOR ITEM=ELEM COMPONENT=    
  IN RANGE   30380 TO    30380 STEP        1

      207  ELEMENTS (OF    30587  DEFINED) SELECTED BY  ESEL  COMMAND.

 *ELSE

 *ENDIF

 *ENDDO  INDEX= _I                              

 *GET  _NECURR   FROM  ELEM  ITEM=COUN           VALUE=  104.000000    

 *IF  _necurr                           ( =   104.000     )  EQ  
      0                                 ( =   0.00000     )  THEN    

 *ENDIF

 PARAMETER _MAG =     100000.0000    

 PARAMETER _MAG =     83524197.21    

 SPECIFIED SURFACE LOAD PRES FOR ALL SELECTED ELEMENTS  LKEY =  5   KVAL = 1
     VALUES =    0.83524E+08    0.10000E+06     0.0000         0.0000    

 ALL SELECT   FOR ITEM=NODE COMPONENT=    
  IN RANGE       1 TO    45979 STEP        1

    45979  NODES (OF    45979  DEFINED) SELECTED BY NSEL  COMMAND.

 ALL SELECT   FOR ITEM=ELEM COMPONENT=    
  IN RANGE       1 TO    30587 STEP        1

    30587  ELEMENTS (OF    30587  DEFINED) SELECTED BY  ESEL  COMMAND.

 PRINTOUT RESUMED BY /GOP

 USE       1 SUBSTEPS INITIALLY THIS LOAD STEP FOR ALL  DEGREES OF FREEDOM
 FOR AUTOMATIC TIME STEPPING:
   USE      1 SUBSTEPS AS A MAXIMUM
   USE      1 SUBSTEPS AS A MINIMUM

 TIME=  1.0000    

 ERASE THE CURRENT DATABASE OUTPUT CONTROL TABLE.


 WRITE ALL  ITEMS TO THE DATABASE WITH A FREQUENCY OF NONE
   FOR ALL APPLICABLE ENTITIES

 WRITE NSOL ITEMS TO THE DATABASE WITH A FREQUENCY OF ALL 
   FOR ALL APPLICABLE ENTITIES

 WRITE RSOL ITEMS TO THE DATABASE WITH A FREQUENCY OF ALL 
   FOR ALL APPLICABLE ENTITIES

 WRITE STRS ITEMS TO THE DATABASE WITH A FREQUENCY OF ALL 
   FOR ALL APPLICABLE ENTITIES

 WRITE EPEL ITEMS TO THE DATABASE WITH A FREQUENCY OF ALL 
   FOR ALL APPLICABLE ENTITIES

 WRITE EPPL ITEMS TO THE DATABASE WITH A FREQUENCY OF ALL 
   FOR ALL APPLICABLE ENTITIES

 NONLINEAR STABILIZATION CONTROL:
 KEY=OFF 


 *GET  ANSINTER_  FROM  ACTI  ITEM=INT        VALUE=  0.00000000    

 *IF  ANSINTER_                         ( =   0.00000     )  NE  
      0                                 ( =   0.00000     )  THEN    

 *ENDIF

 *****  ANSYS SOLVE    COMMAND  *****

 *** WARNING ***                         CP =       1.170   TIME= 06:15:49
 Element shape checking is currently inactive.  Issue SHPP,ON or         
 SHPP,WARN to reactivate, if desired.                                    

 *** NOTE ***                            CP =       1.420   TIME= 06:15:49
 The model data was checked and warning messages were found.             
  Please review output or errors file (                                  
 C:\Users\xkong\Documents\kmxz\mech4450project\_ProjectScratch\Scr3A64\f 
 file.err ) for these warning messages.                                  

 *** SELECTION OF ELEMENT TECHNOLOGIES FOR APPLICABLE ELEMENTS ***
      --- GIVE SUGGESTIONS AND RESET THE KEY OPTIONS ---

 ELEMENT TYPE    1 IS SOLID187. IT IS NOT ASSOCIATED WITH FULLY INCOMPRESSIBLE
 HYPERELASTIC MATERIALS. NO SUGGESTION IS AVAILABLE AND NO RESETTING IS NEEDED.


1

 ***** ANSYS - ENGINEERING ANALYSIS SYSTEM  RELEASE 14.5.7   *****
 ANSYS Academic Teaching Advanced                  
 00232376          VERSION=WINDOWS x64   06:15:49  MAY 03, 2015 CP=      1.420

 s1--Static Structural (A5)                                                    


                       S O L U T I O N   O P T I O N S

   PROBLEM DIMENSIONALITY. . . . . . . . . . . . .3-D                  
   DEGREES OF FREEDOM. . . . . . UX   UY   UZ  
   ANALYSIS TYPE . . . . . . . . . . . . . . . . .STATIC (STEADY-STATE)
   OFFSET TEMPERATURE FROM ABSOLUTE ZERO . . . . .  273.15    
   EQUATION SOLVER OPTION. . . . . . . . . . . . .PCG                
      TOLERANCE. . . . . . . . . . . . . . . . . . 1.00000E-08
   GLOBALLY ASSEMBLED MATRIX . . . . . . . . . . .SYMMETRIC  

 *** WARNING ***                         CP =       1.451   TIME= 06:15:49
 Material number 2 (used by element 30172 ) should normally have at      
 least one MP or one TB type command associated with it.  Output of      
 energy by material may not be available.                                

 *** NOTE ***                            CP =       1.482   TIME= 06:15:49
 The step data was checked and warning messages were found.              
  Please review output or errors file (                                  
 C:\Users\xkong\Documents\kmxz\mech4450project\_ProjectScratch\Scr3A64\f 
 file.err ) for these warning messages.                                  

 *** NOTE ***                            CP =       1.482   TIME= 06:15:49
 The conditions for direct assembly have been met.  No .emat or .erot    
 files will be produced.                                                 

                      L O A D   S T E P   O P T I O N S

   LOAD STEP NUMBER. . . . . . . . . . . . . . . .     1
   TIME AT END OF THE LOAD STEP. . . . . . . . . .  1.0000    
   NUMBER OF SUBSTEPS. . . . . . . . . . . . . . .     1
   STEP CHANGE BOUNDARY CONDITIONS . . . . . . . .    NO
   PRINT OUTPUT CONTROLS . . . . . . . . . . . . .NO PRINTOUT
   DATABASE OUTPUT CONTROLS
      ITEM     FREQUENCY   COMPONENT
       ALL       NONE               
      NSOL        ALL               
      RSOL        ALL               
      STRS        ALL               
      EPEL        ALL               
      EPPL        ALL               


 SOLUTION MONITORING INFO IS WRITTEN TO FILE= file.mntr                                                                                                                                                                                                                                                           


 *** NOTE ***                            CP =       1.997   TIME= 06:15:50
 The PCG solver has automatically set the level of difficulty for this   
 model to 1.                                                             



            **** CENTER OF MASS, MASS, AND MASS MOMENTS OF INERTIA ****

  CALCULATIONS ASSUME ELEMENT MASS AT ELEMENT CENTROID

  TOTAL MASS =   16.937    

                           MOM. OF INERTIA         MOM. OF INERTIA
  CENTER OF MASS            ABOUT ORIGIN        ABOUT CENTER OF MASS

  XC =  0.16412          IXX =   0.7151E-01      IXX =   0.7151E-01
  YC = -0.12807E-07      IYY =   0.7001          IYY =   0.2439    
  ZC = -0.28134E-07      IZZ =   0.7391          IZZ =   0.2830    
                         IXY =  -0.3902E-06      IXY =  -0.4258E-06
                         IYZ =   0.4519E-06      IYZ =   0.4519E-06
                         IZX =   0.4017E-06      IZX =   0.3235E-06


  *** MASS SUMMARY BY ELEMENT TYPE ***

  TYPE      MASS
     1   16.9373    

 Range of element maximum matrix coefficients in global coordinates
 Maximum = 6.822335022E+09 at element 11057.                             
 Minimum = 256851517 at element 1256.                                    

   *** ELEMENT MATRIX FORMULATION TIMES
  TYPE    NUMBER   ENAME      TOTAL CP  AVE CP

     1     30171  SOLID187      3.089   0.000102
     2       208  SURF154       0.000   0.000000
     3       208  SURF154       0.031   0.000150
 Time at end of element matrix formulation CP = 3.60362315.              
 Iteration=    10 Ratio= 0.105084     Limit= 1.000000E-08 Wall=     0.1
 Iteration=    50 Ratio= 4.448928E-04 Limit= 1.000000E-08 Wall=     0.5
 Iteration=    90 Ratio= 2.487829E-06 Limit= 1.000000E-08 Wall=     0.9

 PRECONDITIONED SOLVER CP TIME      =     3.479
 PRECONDITIONED SOLVER ELAPSED TIME =     1.790

   *** ELEMENT RESULT CALCULATION TIMES
  TYPE    NUMBER   ENAME      TOTAL CP  AVE CP

     1     30171  SOLID187      2.621   0.000087
     2       208  SURF154       0.062   0.000300
     3       208  SURF154       0.000   0.000000

   *** NODAL LOAD CALCULATION TIMES
  TYPE    NUMBER   ENAME      TOTAL CP  AVE CP

     1     30171  SOLID187      0.062   0.000002
     2       208  SURF154       0.000   0.000000
     3       208  SURF154       0.000   0.000000
 *** LOAD STEP     1   SUBSTEP     1  COMPLETED.    CUM ITER =      1
 *** TIME =   1.00000         TIME INC =   1.00000      NEW TRIANG MATRIX


 *** ANSYS BINARY FILE STATISTICS
  BUFFER SIZE USED= 16384
       25.000 MB WRITTEN ON RESULTS FILE: file.rst
 *************** Write FE CONNECTORS *********

 WRITE OUT CONSTRAINT EQUATIONS TO FILE= file.ce                                                                                                                                                                                                                                                             
 ****************************************************
 *************** FINISHED SOLVE FOR LS 1 *************

 PARAMETER _DS_PROGRESS  DELETED.

 *GET  _WALLASOL  FROM  ACTI  ITEM=TIME WALL  VALUE=  6.26472222    

 *GET  _PCGITER  FROM  ACTI  ITEM=SOLU CGIT  VALUE=  139.000000    

 FINISH SOLUTION PROCESSING


 ***** ROUTINE COMPLETED *****  CP =         8.752


1

 ***** ANSYS - ENGINEERING ANALYSIS SYSTEM  RELEASE 14.5.7   *****
 ANSYS Academic Teaching Advanced                  
 00232376          VERSION=WINDOWS x64   06:15:53  MAY 03, 2015 CP=      8.752

 s1--Static Structural (A5)                                                    


          ***** ANSYS RESULTS INTERPRETATION (POST1) *****

 *** NOTE ***                            CP =       8.752   TIME= 06:15:53
 Reading results into the database (SET command) will update the current 
 displacement and force boundary conditions in the database with the     
 values from the results file for that load set.  Note that any          
 subsequent solutions will use these values unless action is taken to    
 either SAVE the current values or not overwrite them (/EXIT,NOSAVE).    

 Set Encoding of XML File to:ISO-8859-1

 Set Output of XML File to:
     PARM,     ,     ,     ,     ,     ,     ,     ,     ,     ,     ,     ,
         ,     ,     ,     ,     ,     ,     ,

 DATABASE WRITTEN ON FILE  parm.xml                                                                                                                                                                                                                                                            

 EXIT THE ANSYS POST1 DATABASE PROCESSOR


 ***** ROUTINE COMPLETED *****  CP =         8.752



 PRINTOUT RESUMED BY /GOP

 *GET  _WALLDONE  FROM  ACTI  ITEM=TIME WALL  VALUE=  6.26472222    

 PARAMETER _PREPTIME =     0.000000000    

 PARAMETER _SOLVTIME =     4.000000000    

 PARAMETER _POSTTIME =     0.000000000    

 PARAMETER _TOTALTIM =     4.000000000    

 EXIT ANSYS WITHOUT SAVING DATABASE


 NUMBER OF WARNING MESSAGES ENCOUNTERED=          2
 NUMBER OF ERROR   MESSAGES ENCOUNTERED=          0

+--------------------- A N S Y S   S T A T I S T I C S ------------------------+

Release: 14.5.7     Build: UP20130316   Platform: WINDOWS x64 
Date Run: 05/03/2015   Time: 06:15
Windows Process ID:         2588

Processor Model: Intel(R) Core(TM) i5-4590 CPU @ 3.30GHz

Compiler: Intel(R) FORTRAN Compiler Version 11.1.0  (Build: 20100414)
          Microsoft(R) Visual C/C++ Compiler Version 15.0  (Build: 30729)
          Intel(R) Math Kernel Library Version 10.3.3 Product Build 20110314

Total number of cores available    :    4
Number of physical cores available :    4
Number of cores requested          :    2 (Shared Memory Parallel)

GPU Acceleration: Not Requested

Job Name: file
Working Directory: C:\Users\xkong\Documents\kmxz\mech4450project\_ProjectScratch\Scr3A64

Total CPU time for main thread                    :        4.9 seconds
Total CPU time summed for all threads             :        8.8 seconds

Elapsed time spent pre-processing model (/PREP7)  :        0.2 seconds
Elapsed time spent solution - preprocessing       :        0.4 seconds
Elapsed time spent computing solution             :        3.4 seconds
Elapsed time spent solution - postprocessing      :        0.0 seconds
Elapsed time spent post-processing model (/POST1) :        0.0 seconds

Equation solver computational rate                :     6372.4 Mflops

Maximum total memory used                         :      166.0 MB
Maximum total memory allocated                    :     1088.0 MB
Maximum total memory available                    :          8 GB

+------------------ E N D   A N S Y S   S T A T I S T I C S -------------------+


 *---------------------------------------------------------------------------*
 |                                                                           |
 |                            ANSYS RUN COMPLETED                            |
 |                                                                           |
 |---------------------------------------------------------------------------|
 |                                                                           |
 |            Release 14.5.7         UP20130316         WINDOWS x64          |
 |                                                                           |
 |---------------------------------------------------------------------------|
 |                                                                           |
 | Database Requested(-db)   512 MB    Scratch Memory Requested       512 MB |
 | Maximum Database Used      67 MB    Maximum Scratch Memory Used     99 MB |
 |                                                                           |
 |---------------------------------------------------------------------------|
 |                                                                           |
 |        CP Time      (sec) =          8.752       Time  =  06:15:53        |
 |        Elapsed Time (sec) =          6.000       Date  =  05/03/2015      |
 |                                                                           |
 *---------------------------------------------------------------------------*
